  
       XFOIL         Version 6.99
  
 Calculated polar for: cl_o_cd                                         
  
 1 1 Reynolds number fixed          Mach number fixed         
  
 xtrf =   1.000 (top)        1.000 (bottom)  
 Mach =   0.000     Re =     3.000 e 6     Ncrit =   9.000
  
   alpha    CL        CD       CDp       CM     Top_Xtr  Bot_Xtr
  ------ -------- --------- --------- -------- -------- --------
   8.000   1.6639   0.00459   0.00228  -0.2930   0.7970   0.9997
