  
       XFOIL         Version 6.99
  
 Calculated polar for: best_cl                                         
  
 1 1 Reynolds number fixed          Mach number fixed         
  
 xtrf =   1.000 (top)        1.000 (bottom)  
 Mach =   0.000     Re =     3.000 e 6     Ncrit =   9.000
  
   alpha    CL        CD       CDp       CM     Top_Xtr  Bot_Xtr
  ------ -------- --------- --------- -------- -------- --------
   8.000   2.7822   0.01161   0.00897  -0.3396   0.5593   1.0003
